# generated using pymatgen
data_LiFePO4
_symmetry_space_group_name_H-M   Pnma
_cell_length_a   10.23619605
_cell_length_b   5.97075510
_cell_length_c   4.65491719
_cell_angle_alpha   90.00000000
_cell_angle_beta   90.00000000
_cell_angle_gamma   90.00000000
_symmetry_Int_Tables_number   62
_chemical_formula_structural   LiFePO4
_chemical_formula_sum   'Li4 Fe4 P4 O16'
_cell_volume   284.49838986
_cell_formula_units_Z   4
loop_
 _symmetry_equiv_pos_site_id
 _symmetry_equiv_pos_as_xyz
  1  'x, y, z'
  2  '-x, -y, -z'
  3  '-x+1/2, -y, z+1/2'
  4  'x+1/2, y, -z+1/2'
  5  'x+1/2, -y+1/2, -z+1/2'
  6  '-x+1/2, y+1/2, z+1/2'
  7  '-x, y+1/2, -z'
  8  'x, -y+1/2, z'
loop_
 _atom_type_symbol
 _atom_type_oxidation_number
  Li+  1.0
  Fe2+  2.0
  P5+  5.0
  O2-  -2.0
loop_
 _atom_site_type_symbol
 _atom_site_label
 _atom_site_symmetry_multiplicity
 _atom_site_fract_x
 _atom_site_fract_y
 _atom_site_fract_z
 _atom_site_occupancy
  Li+  Li0  4  0.00000000  0.00000000  0.00000000  1
  Fe2+  Fe1  4  0.21884873  0.25000000  0.52986573  1
  P5+  P2  4  0.09386630  0.75000000  0.58137743  1
  O2-  O3  8  0.16584548  0.54555803  0.71373534  1
  O2-  O4  4  0.04430856  0.25000000  0.29013555  1
  O2-  O5  4  0.09423067  0.75000000  0.25521344  1
