data_image0
_chemical_formula_structural       Li4Fe4P4O16Li4Fe4P4O16Li4Fe4P4O16Li4Fe4P4O16
_chemical_formula_sum              "Li16 Fe16 P16 O64"
_cell_length_a       10.392762274919594
_cell_length_b       12.133931802417534
_cell_length_c       9.466421422497087
_cell_angle_alpha    90.000000161746
_cell_angle_beta     89.99999824629892
_cell_angle_gamma    90.00000075893902

_space_group_name_H-M_alt    "P 1"
_space_group_IT_number       1

loop_
  _space_group_symop_operation_xyz
  'x, y, z'

loop_
  _atom_site_type_symbol
  _atom_site_label
  _atom_site_symmetry_multiplicity
  _atom_site_fract_x
  _atom_site_fract_y
  _atom_site_fract_z
  _atom_site_occupancy
  Li  Li1       1.0  0.0  0.0  0.0  1.0000
  Li  Li2       1.0  0.4999999999999999  2.385980233842074e-25  0.24999999999999994  1.0000
  Li  Li3       1.0  0.49999999999999983  0.24999999999999994  0.2499999999999999  1.0000
  Li  Li4       1.0  0.0  0.24999999999999992  0.0  1.0000
  Fe  Fe1       1.0  0.2188487300000001  0.12499999999999997  0.2649328649999999  1.0000
  Fe  Fe2       1.0  0.7811512700000001  0.37499999999999994  0.2350671349999999  1.0000
  Fe  Fe3       1.0  0.28115127  0.37500000000000006  0.014932865000000014  1.0000
  Fe  Fe4       1.0  0.71884873  0.12499999999999997  0.4850671349999997  1.0000
  P   P1        1.0  0.09386630000000001  0.3749999999999999  0.2906887149999999  1.0000
  P   P2        1.0  0.9061336999999998  0.12499999999999996  0.20931128499999993  1.0000
  P   P3        1.0  0.4061337000000001  0.12499999999999996  0.04068871499999992  1.0000
  P   P4        1.0  0.5938662999999997  0.37499999999999994  0.45931128499999985  1.0000
  O   O1        1.0  0.16584547999999996  0.27277901499999985  0.3568676699999998  1.0000
  O   O2        1.0  0.8341545199999998  0.22722098500000007  0.14313232999999995  1.0000
  O   O3        1.0  0.33415451999999995  0.227220985  0.10686766999999996  1.0000
  O   O4        1.0  0.6658454800000002  0.27277901499999985  0.3931323299999997  1.0000
  O   O5        1.0  0.6658454799999999  0.47722098499999993  0.3931323299999997  1.0000
  O   O6        1.0  0.33415452  0.022779015000000014  0.10686766999999991  1.0000
  O   O7        1.0  0.83415452  0.02277901500000001  0.14313232999999992  1.0000
  O   O8        1.0  0.16584548  0.477220985  0.35686766999999997  1.0000
  O   O9        1.0  0.04430856  0.12499999999999996  0.14506777499999993  1.0000
  O   O10       1.0  0.9556914400000003  0.3749999999999999  0.3549322249999998  1.0000
  O   O11       1.0  0.45569144000000006  0.37500000000000006  0.39506777499999984  1.0000
  O   O12       1.0  0.5443085600000002  0.125  0.10493222499999993  1.0000
  O   O13       1.0  0.09423067  0.3749999999999999  0.12760671999999998  1.0000
  O   O14       1.0  0.90576933  0.12499999999999994  0.37239327999999977  1.0000
  O   O15       1.0  0.40576933000000004  0.12499999999999996  0.37760671999999973  1.0000
  O   O16       1.0  0.5942306699999998  0.3750000000000001  0.12239327999999991  1.0000
  Li  Li5       1.0  0.0  0.0  0.4999999999999999  1.0000
  Li  Li6       1.0  0.49999999999999983  1.3634172764811852e-25  0.7499999999999998  1.0000
  Li  Li7       1.0  0.49999999999999983  0.25  0.7499999999999997  1.0000
  Li  Li8       1.0  3.18367952877832e-25  0.24999999999999992  0.49999999999999994  1.0000
  Fe  Fe5       1.0  0.2188487300000001  0.12499999999999997  0.7649328649999997  1.0000
  Fe  Fe6       1.0  0.7811512700000001  0.37499999999999994  0.7350671349999999  1.0000
  Fe  Fe7       1.0  0.28115127  0.37500000000000017  0.5149328649999999  1.0000
  Fe  Fe8       1.0  0.71884873  0.12499999999999997  0.9850671349999995  1.0000
  P   P5        1.0  0.09386630000000001  0.3749999999999999  0.7906887149999997  1.0000
  P   P6        1.0  0.9061336999999998  0.12499999999999994  0.7093112849999997  1.0000
  P   P7        1.0  0.4061337000000001  0.12499999999999996  0.5406887149999999  1.0000
  P   P8        1.0  0.5938662999999997  0.37499999999999994  0.9593112849999995  1.0000
  O   O17       1.0  0.16584547999999996  0.27277901499999985  0.8568676699999996  1.0000
  O   O18       1.0  0.8341545199999998  0.22722098500000007  0.6431323299999998  1.0000
  O   O19       1.0  0.33415451999999995  0.227220985  0.6068676699999997  1.0000
  O   O20       1.0  0.6658454800000002  0.27277901499999985  0.8931323299999995  1.0000
  O   O21       1.0  0.6658454799999999  0.47722098499999993  0.8931323299999995  1.0000
  O   O22       1.0  0.33415452  0.022779015  0.60686767  1.0000
  O   O23       1.0  0.83415452  0.02277901500000001  0.6431323299999997  1.0000
  O   O24       1.0  0.16584548  0.4772209849999999  0.8568676699999996  1.0000
  O   O25       1.0  0.04430856  0.12499999999999997  0.6450677749999999  1.0000
  O   O26       1.0  0.9556914400000003  0.3749999999999999  0.8549322249999999  1.0000
  O   O27       1.0  0.45569143999999995  0.37500000000000006  0.8950677749999996  1.0000
  O   O28       1.0  0.54430856  0.125  0.6049322249999999  1.0000
  O   O29       1.0  0.09423067000000002  0.3749999999999999  0.6276067199999998  1.0000
  O   O30       1.0  0.9057693299999998  0.12499999999999996  0.8723932799999996  1.0000
  O   O31       1.0  0.40576932999999993  0.12499999999999996  0.8776067199999995  1.0000
  O   O32       1.0  0.5942306699999998  0.37499999999999994  0.6223932799999999  1.0000
  Li  Li9       1.0  0.0  0.4999999999999999  0.0  1.0000
  Li  Li10      1.0  0.4999999999999999  0.49999999999999994  0.24999999999999983  1.0000
  Li  Li11      1.0  0.49999999999999983  0.7499999999999998  0.2499999999999998  1.0000
  Li  Li12      1.0  0.0  0.7499999999999998  0.0  1.0000
  Fe  Fe9       1.0  0.21884873000000005  0.6249999999999999  0.26493286499999985  1.0000
  Fe  Fe10      1.0  0.7811512700000001  0.8750000000000001  0.23506713499999987  1.0000
  Fe  Fe11      1.0  0.28115126999999995  0.8749999999999998  0.014932865000000014  1.0000
  Fe  Fe12      1.0  0.71884873  0.6249999999999998  0.4850671349999998  1.0000
  P   P9        1.0  0.09386630000000001  0.8749999999999998  0.2906887149999998  1.0000
  P   P10       1.0  0.9061336999999998  0.6249999999999999  0.20931128499999993  1.0000
  P   P11       1.0  0.4061337000000001  0.6249999999999999  0.04068871499999992  1.0000
  P   P12       1.0  0.5938662999999997  0.8749999999999994  0.4593112849999997  1.0000
  O   O33       1.0  0.16584547999999996  0.7727790149999999  0.3568676699999998  1.0000
  O   O34       1.0  0.8341545199999997  0.727220985  0.14313232999999995  1.0000
  O   O35       1.0  0.33415451999999995  0.727220985  0.10686766999999996  1.0000
  O   O36       1.0  0.6658454800000002  0.7727790149999997  0.39313232999999975  1.0000
  O   O37       1.0  0.6658454799999999  0.9772209849999995  0.39313232999999975  1.0000
  O   O38       1.0  0.33415452  0.5227790149999999  0.10686766999999991  1.0000
  O   O39       1.0  0.83415452  0.522779015  0.14313232999999992  1.0000
  O   O40       1.0  0.16584548  0.9772209849999999  0.35686766999999986  1.0000
  O   O41       1.0  0.04430856  0.6249999999999998  0.14506777499999993  1.0000
  O   O42       1.0  0.9556914400000003  0.8750000000000001  0.3549322249999998  1.0000
  O   O43       1.0  0.45569144000000006  0.8750000000000001  0.3950677749999999  1.0000
  O   O44       1.0  0.5443085600000002  0.6249999999999999  0.10493222499999993  1.0000
  O   O45       1.0  0.09423067  0.8749999999999999  0.12760671999999998  1.0000
  O   O46       1.0  0.90576933  0.6249999999999999  0.37239327999999977  1.0000
  O   O47       1.0  0.40576933000000004  0.6249999999999998  0.37760671999999973  1.0000
  O   O48       1.0  0.5942306699999998  0.8750000000000001  0.12239327999999991  1.0000
  Li  Li13      1.0  1.9102077172669917e-24  0.4999999999999998  0.49999999999999967  1.0000
  Li  Li14      1.0  0.4999999999999999  0.4999999999999998  0.7499999999999998  1.0000
  Li  Li15      1.0  0.49999999999999983  0.7499999999999998  0.7499999999999997  1.0000
  Li  Li16      1.0  0.0  0.7499999999999998  0.4999999999999998  1.0000
  Fe  Fe13      1.0  0.21884873000000005  0.625  0.7649328649999997  1.0000
  Fe  Fe14      1.0  0.7811512700000001  0.8749999999999997  0.7350671349999998  1.0000
  Fe  Fe15      1.0  0.28115126999999995  0.8749999999999999  0.5149328649999999  1.0000
  Fe  Fe16      1.0  0.7188487300000002  0.625  0.9850671349999995  1.0000
  P   P13       1.0  0.09386630000000001  0.8749999999999997  0.7906887149999995  1.0000
  P   P14       1.0  0.9061336999999998  0.6249999999999999  0.7093112849999997  1.0000
  P   P15       1.0  0.40613370000000015  0.6249999999999999  0.5406887149999999  1.0000
  P   P16       1.0  0.5938662999999998  0.8749999999999998  0.9593112849999995  1.0000
  O   O49       1.0  0.16584547999999996  0.7727790149999999  0.8568676699999996  1.0000
  O   O50       1.0  0.8341545199999997  0.727220985  0.6431323299999998  1.0000
  O   O51       1.0  0.33415451999999995  0.727220985  0.6068676699999999  1.0000
  O   O52       1.0  0.6658454800000002  0.7727790149999997  0.8931323299999995  1.0000
  O   O53       1.0  0.6658454799999999  0.9772209849999999  0.8931323299999995  1.0000
  O   O54       1.0  0.33415452  0.5227790149999998  0.6068676699999997  1.0000
  O   O55       1.0  0.83415452  0.5227790149999998  0.6431323299999997  1.0000
  O   O56       1.0  0.16584548  0.9772209849999999  0.8568676699999996  1.0000
  O   O57       1.0  0.04430856  0.6249999999999998  0.6450677749999999  1.0000
  O   O58       1.0  0.9556914400000003  0.8749999999999999  0.8549322249999994  1.0000
  O   O59       1.0  0.45569144000000006  0.8750000000000002  0.8950677749999996  1.0000
  O   O60       1.0  0.5443085600000002  0.625  0.6049322249999999  1.0000
  O   O61       1.0  0.09423067000000002  0.8749999999999999  0.6276067199999997  1.0000
  O   O62       1.0  0.9057693299999998  0.6249999999999998  0.8723932799999996  1.0000
  O   O63       1.0  0.40576933000000004  0.6249999999999999  0.8776067199999997  1.0000
  O   O64       1.0  0.5942306699999998  0.8750000000000001  0.6223932799999997  1.0000
