# generated using pymatgen
data_FePO4
_symmetry_space_group_name_H-M   Pnma
_cell_length_a   9.91419800
_cell_length_b   5.88550100
_cell_length_c   4.86063300
_cell_angle_alpha   90.00000000
_cell_angle_beta   90.00000000
_cell_angle_gamma   90.00000000
_symmetry_Int_Tables_number   62
_chemical_formula_structural   FePO4
_chemical_formula_sum   'Fe4 P4 O16'
_cell_volume   283.61804367
_cell_formula_units_Z   4
loop_
 _symmetry_equiv_pos_site_id
 _symmetry_equiv_pos_as_xyz
  1  'x, y, z'
  2  '-x, -y, -z'
  3  '-x+1/2, -y, z+1/2'
  4  'x+1/2, y, -z+1/2'
  5  'x+1/2, -y+1/2, -z+1/2'
  6  '-x+1/2, y+1/2, z+1/2'
  7  '-x, y+1/2, -z'
  8  'x, -y+1/2, z'
loop_
 _atom_type_symbol
 _atom_type_oxidation_number
  Fe3+  3.0
  P5+  5.0
  O2-  -2.0
loop_
 _atom_site_type_symbol
 _atom_site_label
 _atom_site_symmetry_multiplicity
 _atom_site_fract_x
 _atom_site_fract_y
 _atom_site_fract_z
 _atom_site_occupancy
  Fe3+  Fe0  4  0.22594400  0.25000000  0.54911700  1
  P5+  P1  4  0.09381600  0.75000000  0.59863100  1
  O2-  O2  8  0.16710800  0.54620500  0.74721300  1
  O2-  O3  4  0.05721800  0.25000000  0.34691300  1
  O2-  O4  4  0.12032000  0.75000000  0.28883300  1
